3LK7.G
  MOE2018           3D
LIGASE
  1  0  0  0  0  0  0  0  0  0999 V2000
   17.4313   73.6428    4.5657 Cl  0  5  0  0  0  0  0  0  0  0  0  0
M  CHG  1   1  -1
M  END
$$$$
3LK7.G
  MOE2018           3D
LIGASE
 31 32  0  0  0  0  0  0  0  0999 V2000
   19.1799   67.6248    6.4841 C   0  0  0  0  0  0  0  0  0  0  0  0
   20.1583   68.0275    6.2221 H   0  0  0  0  0  0  0  0  0  0  0  0
   18.7172   67.1894    5.5984 H   0  0  0  0  0  0  0  0  0  0  0  0
   19.2960   66.8563    7.2483 H   0  0  0  0  0  0  0  0  0  0  0  0
   18.3335   68.6979    6.9976 N   0  3  0  0  0  0  0  0  0  0  0  0
   18.7986   69.0748    7.8110 H   0  0  0  0  0  0  0  0  0  0  0  0
   18.1577   69.7633    6.0349 C   0  0  0  0  0  0  0  0  0  0  0  0
   19.1373   70.1661    5.7772 H   0  0  0  0  0  0  0  0  0  0  0  0
   17.6873   69.3525    5.1416 H   0  0  0  0  0  0  0  0  0  0  0  0
   17.2966   70.8862    6.5622 C   0  0  0  0  0  0  0  0  0  0  0  0
   17.0147   71.5250    5.7253 H   0  0  0  0  0  0  0  0  0  0  0  0
   17.8835   71.4624    7.2775 H   0  0  0  0  0  0  0  0  0  0  0  0
   16.0704   70.4305    7.2302 N   0  0  0  0  0  0  0  0  0  0  0  0
   16.2658   69.2431    8.0709 C   0  0  0  0  0  0  0  0  0  0  0  0
   16.8167   69.5304    8.9666 H   0  0  0  0  0  0  0  0  0  0  0  0
   15.2912   68.8465    8.3554 H   0  0  0  0  0  0  0  0  0  0  0  0
   17.0326   68.1777    7.3489 C   0  0  0  0  0  0  0  0  0  0  0  0
   16.4967   67.8897    6.4445 H   0  0  0  0  0  0  0  0  0  0  0  0
   17.1483   67.3077    7.9953 H   0  0  0  0  0  0  0  0  0  0  0  0
   14.9442   71.2110    7.3233 C   0  0  0  0  0  0  0  0  0  0  0  0
   13.8617   70.7917    8.1007 C   0  0  0  0  0  0  0  0  0  0  0  0
   13.9126   69.8369    8.6030 H   0  0  0  0  0  0  0  0  0  0  0  0
   12.7477   71.5546    8.2403 C   0  0  0  0  0  0  0  0  0  0  0  0
   11.9227   71.1852    8.8312 H   0  0  0  0  0  0  0  0  0  0  0  0
   12.6493   72.8093    7.6331 C   0  0  0  0  0  0  0  0  0  0  0  0
   11.4882   73.6248    7.7981 C   0  0  0  0  0  0  0  0  0  0  0  0
   10.5947   74.3335    7.8611 N   0  0  0  0  0  0  0  0  0  0  0  0
   13.7082   73.2362    6.8467 C   0  0  0  0  0  0  0  0  0  0  0  0
   13.6429   74.1900    6.3443 H   0  0  0  0  0  0  0  0  0  0  0  0
   14.8325   72.4754    6.6942 C   0  0  0  0  0  0  0  0  0  0  0  0
   15.6464   72.8424    6.0865 H   0  0  0  0  0  0  0  0  0  0  0  0
  1  2  1  0  0  0  0
  1  3  1  0  0  0  0
  1  4  1  0  0  0  0
  1  5  1  0  0  0  0
  5  6  1  0  0  0  0
  5  7  1  0  0  0  0
  5 17  1  0  0  0  0
  7  8  1  0  0  0  0
  7  9  1  0  0  0  0
  7 10  1  0  0  0  0
 10 11  1  0  0  0  0
 10 12  1  0  0  0  0
 10 13  1  0  0  0  0
 13 14  1  0  0  0  0
 13 20  1  0  0  0  0
 14 15  1  0  0  0  0
 14 16  1  0  0  0  0
 14 17  1  0  0  0  0
 17 18  1  0  0  0  0
 17 19  1  0  0  0  0
 20 21  1  0  0  0  0
 20 30  2  0  0  0  0
 21 22  1  0  0  0  0
 21 23  2  0  0  0  0
 23 24  1  0  0  0  0
 23 25  1  0  0  0  0
 25 26  1  0  0  0  0
 25 28  2  0  0  0  0
 26 27  3  0  0  0  0
 28 29  1  0  0  0  0
 28 30  1  0  0  0  0
 30 31  1  0  0  0  0
M  CHG  1   5   1
M  END
$$$$
3LK7.D
  MOE2018           3D
LIGASE
 34 35  0  0  0  0  0  0  0  0999 V2000
   17.7144   65.7270   12.0910 C   0  0  0  0  0  0  0  0  0  0  0  0
   17.4665   65.3170   13.0701 H   0  0  0  0  0  0  0  0  0  0  0  0
   18.4221   66.5474   12.2093 H   0  0  0  0  0  0  0  0  0  0  0  0
   18.1612   64.9478   11.4734 H   0  0  0  0  0  0  0  0  0  0  0  0
   16.4982   66.2214   11.4476 N   0  3  0  0  0  0  0  0  0  0  0  0
   15.8561   65.4484   11.3459 H   0  0  0  0  0  0  0  0  0  0  0  0
   15.8637   67.2522   12.2591 C   0  0  0  0  0  0  0  0  0  0  0  0
   16.5251   68.1157   12.3292 H   0  0  0  0  0  0  0  0  0  0  0  0
   15.6718   66.8595   13.2577 H   0  0  0  0  0  0  0  0  0  0  0  0
   14.5596   67.6701   11.6260 C   0  0  0  0  0  0  0  0  0  0  0  0
   14.0900   68.4435   12.2338 H   0  0  0  0  0  0  0  0  0  0  0  0
   13.8949   66.8090   11.5565 H   0  0  0  0  0  0  0  0  0  0  0  0
   14.8222   68.1880   10.3005 N   0  0  0  0  0  0  0  0  0  0  0  0
   15.5756   67.2843    9.4430 C   0  0  0  0  0  0  0  0  0  0  0  0
   15.8654   67.8158    8.5366 H   0  0  0  0  0  0  0  0  0  0  0  0
   14.9433   66.4361    9.1804 H   0  0  0  0  0  0  0  0  0  0  0  0
   16.8245   66.7722   10.1344 C   0  0  0  0  0  0  0  0  0  0  0  0
   17.2786   65.9930    9.5222 H   0  0  0  0  0  0  0  0  0  0  0  0
   17.5290   67.5950   10.2565 H   0  0  0  0  0  0  0  0  0  0  0  0
   14.2342   69.3457    9.9199 C   0  0  0  0  0  0  0  0  0  0  0  0
   13.5326   69.9401   10.6803 O   0  0  0  0  0  0  0  0  0  0  0  0
   14.4221   69.7098    8.6211 N   0  0  0  0  0  0  0  0  0  0  0  0
   14.9951   69.1079    8.0471 H   0  0  0  0  0  0  0  0  0  0  0  0
   13.8839   70.8511    8.0205 C   0  0  0  0  0  0  0  0  0  0  0  0
   12.5612   71.1595    8.2911 C   0  0  0  0  0  0  0  0  0  0  0  0
   11.9572   70.4841    8.8788 H   0  0  0  0  0  0  0  0  0  0  0  0
   12.0153   72.3355    7.8064 C   0  0  0  0  0  0  0  0  0  0  0  0
   10.9991   72.6195    8.0366 H   0  0  0  0  0  0  0  0  0  0  0  0
   12.8171   73.1265    7.0215 C   0  0  0  0  0  0  0  0  0  0  0  0
   12.2699   74.2634    6.5088 F   0  0  0  0  0  0  0  0  0  0  0  0
   14.1052   72.8375    6.7198 C   0  0  0  0  0  0  0  0  0  0  0  0
   14.6734   73.4810    6.0645 H   0  0  0  0  0  0  0  0  0  0  0  0
   14.6808   71.7040    7.2652 C   0  0  0  0  0  0  0  0  0  0  0  0
   15.7268   71.4863    7.1077 H   0  0  0  0  0  0  0  0  0  0  0  0
  1  2  1  0  0  0  0
  1  3  1  0  0  0  0
  1  4  1  0  0  0  0
  1  5  1  0  0  0  0
  5  6  1  0  0  0  0
  5  7  1  0  0  0  0
  5 17  1  0  0  0  0
  7  8  1  0  0  0  0
  7  9  1  0  0  0  0
  7 10  1  0  0  0  0
 10 11  1  0  0  0  0
 10 12  1  0  0  0  0
 10 13  1  0  0  0  0
 13 14  1  0  0  0  0
 13 20  1  0  0  0  0
 14 15  1  0  0  0  0
 14 16  1  0  0  0  0
 14 17  1  0  0  0  0
 17 18  1  0  0  0  0
 17 19  1  0  0  0  0
 20 21  2  0  0  0  0
 20 22  1  0  0  0  0
 22 23  1  0  0  0  0
 22 24  1  0  0  0  0
 24 25  1  0  0  0  0
 24 33  2  0  0  0  0
 25 26  1  0  0  0  0
 25 27  2  0  0  0  0
 27 28  1  0  0  0  0
 27 29  1  0  0  0  0
 29 30  1  0  0  0  0
 29 31  2  0  0  0  0
 31 32  1  0  0  0  0
 31 33  1  0  0  0  0
 33 34  1  0  0  0  0
M  CHG  1   5   1
M  END
$$$$
3LK7.G
  MOE2018           3D
LIGASE
 32 32  0  0  0  0  0  0  0  0999 V2000
   16.3284   66.4935   11.1475 C   0  0  0  0  0  0  0  0  0  0  0  0
   16.5890   66.1043   12.1317 H   0  0  0  0  0  0  0  0  0  0  0  0
   17.2324   66.8251   10.6368 H   0  0  0  0  0  0  0  0  0  0  0  0
   15.8474   65.7095   10.5625 H   0  0  0  0  0  0  0  0  0  0  0  0
   15.3708   67.6720   11.3036 C   0  0  0  0  0  0  0  0  0  0  0  0
   14.0350   67.2676   11.9158 C   0  0  0  0  0  0  0  0  0  0  0  0
   13.2994   68.0555   11.7538 H   0  0  0  0  0  0  0  0  0  0  0  0
   14.1543   67.0965   12.9856 H   0  0  0  0  0  0  0  0  0  0  0  0
   13.6089   66.0714   11.2803 O   0  0  0  0  0  0  0  0  0  0  0  0
   13.5291   65.3955   11.9573 H   0  0  0  0  0  0  0  0  0  0  0  0
   16.0941   68.7933   12.0382 C   0  0  0  0  0  0  0  0  0  0  0  0
   15.7847   69.7514   11.6204 H   0  0  0  0  0  0  0  0  0  0  0  0
   17.1692   68.6702   11.9074 H   0  0  0  0  0  0  0  0  0  0  0  0
   15.7914   68.7708   13.4134 O   0  0  0  0  0  0  0  0  0  0  0  0
   14.8420   68.8806   13.5034 H   0  0  0  0  0  0  0  0  0  0  0  0
   14.9805   68.2430   10.0036 N   0  0  0  0  0  0  0  0  0  0  0  0
   15.2130   67.7082    9.1789 H   0  0  0  0  0  0  0  0  0  0  0  0
   14.3431   69.4113    9.8144 C   0  0  0  0  0  0  0  0  0  0  0  0
   13.6770   69.9719   10.6795 O   0  0  0  0  0  0  0  0  0  0  0  0
   14.5075   69.8811    8.5534 N   0  0  0  0  0  0  0  0  0  0  0  0
   15.0878   69.3217    7.9448 H   0  0  0  0  0  0  0  0  0  0  0  0
   13.9718   71.0467    7.9900 C   0  0  0  0  0  0  0  0  0  0  0  0
   14.7754   71.7964    7.1469 C   0  0  0  0  0  0  0  0  0  0  0  0
   15.7819   71.4730    6.9261 H   0  0  0  0  0  0  0  0  0  0  0  0
   14.2800   72.9642    6.5883 C   0  0  0  0  0  0  0  0  0  0  0  0
   14.9004   73.5470    5.9236 H   0  0  0  0  0  0  0  0  0  0  0  0
   13.0017   73.3851    6.8762 C   0  0  0  0  0  0  0  0  0  0  0  0
   12.6165   74.2884    6.4267 H   0  0  0  0  0  0  0  0  0  0  0  0
   12.2138   72.6543    7.7377 C   0  0  0  0  0  0  0  0  0  0  0  0
   11.2300   73.0151    7.9993 H   0  0  0  0  0  0  0  0  0  0  0  0
   12.6748   71.4520    8.2756 C   0  0  0  0  0  0  0  0  0  0  0  0
   12.0349   70.8482    8.9022 H   0  0  0  0  0  0  0  0  0  0  0  0
  1  2  1  0  0  0  0
  1  3  1  0  0  0  0
  1  4  1  0  0  0  0
  1  5  1  0  0  0  0
  5  6  1  0  0  0  0
  5 11  1  0  0  0  0
  5 16  1  0  0  0  0
  6  7  1  0  0  0  0
  6  8  1  0  0  0  0
  6  9  1  0  0  0  0
  9 10  1  0  0  0  0
 11 12  1  0  0  0  0
 11 13  1  0  0  0  0
 11 14  1  0  0  0  0
 14 15  1  0  0  0  0
 16 17  1  0  0  0  0
 16 18  1  0  0  0  0
 18 19  2  0  0  0  0
 18 20  1  0  0  0  0
 20 21  1  0  0  0  0
 20 22  1  0  0  0  0
 22 23  1  0  0  0  0
 22 31  2  0  0  0  0
 23 24  1  0  0  0  0
 23 25  2  0  0  0  0
 25 26  1  0  0  0  0
 25 27  1  0  0  0  0
 27 28  1  0  0  0  0
 27 29  2  0  0  0  0
 29 30  1  0  0  0  0
 29 31  1  0  0  0  0
 31 32  1  0  0  0  0
M  END
$$$$
3LK7.G
  MOE2018           3D
LIGASE
 26 26  0  0  0  0  0  0  0  0999 V2000
   14.5568   67.2264   10.5596 C   0  0  0  0  0  0  0  0  0  0  0  0
   14.9250   66.4133   11.1853 H   0  0  0  0  0  0  0  0  0  0  0  0
   15.1412   67.2708    9.6405 H   0  0  0  0  0  0  0  0  0  0  0  0
   13.5090   67.0513   10.3157 H   0  0  0  0  0  0  0  0  0  0  0  0
   14.6866   68.5110   11.2908 C   0  0  0  0  0  0  0  0  0  0  0  0
   15.7383   68.7225   11.4840 H   0  0  0  0  0  0  0  0  0  0  0  0
   13.9196   68.3550   12.5650 C   0  0  0  0  0  0  0  0  0  0  0  0
   12.8747   68.1448   12.3368 H   0  0  0  0  0  0  0  0  0  0  0  0
   13.9869   69.2756   13.1447 H   0  0  0  0  0  0  0  0  0  0  0  0
   14.3383   67.5307   13.1425 H   0  0  0  0  0  0  0  0  0  0  0  0
   14.1896   69.7125   10.4799 C   0  0  0  0  0  0  0  0  0  0  0  0
   13.3387   70.3814   10.8839 O   0  0  0  0  0  0  0  0  0  0  0  0
   14.6576   69.8519    9.2132 N   0  0  0  0  0  0  0  0  0  0  0  0
   15.2274   69.0974    8.8579 H   0  0  0  0  0  0  0  0  0  0  0  0
   14.4335   70.9392    8.3378 C   0  0  0  0  0  0  0  0  0  0  0  0
   15.3939   71.3917    7.4239 C   0  0  0  0  0  0  0  0  0  0  0  0
   16.3218   70.8499    7.3145 H   0  0  0  0  0  0  0  0  0  0  0  0
   15.1720   72.5136    6.6659 C   0  0  0  0  0  0  0  0  0  0  0  0
   15.9449   72.8638    5.9977 H   0  0  0  0  0  0  0  0  0  0  0  0
   13.9790   73.2021    6.7423 C   0  0  0  0  0  0  0  0  0  0  0  0
   13.7844   74.0421    6.0919 H   0  0  0  0  0  0  0  0  0  0  0  0
   13.0207   72.7865    7.6858 C   0  0  0  0  0  0  0  0  0  0  0  0
   11.7947   73.4833    7.8823 C   0  0  0  0  0  0  0  0  0  0  0  0
   10.8216   74.0385    8.1330 N   0  0  0  0  0  0  0  0  0  0  0  0
   13.2267   71.6192    8.4291 C   0  0  0  0  0  0  0  0  0  0  0  0
   12.4455   71.2466    9.0751 H   0  0  0  0  0  0  0  0  0  0  0  0
  1  2  1  0  0  0  0
  1  3  1  0  0  0  0
  1  4  1  0  0  0  0
  1  5  1  0  0  0  0
  5  6  1  0  0  0  0
  5  7  1  0  0  0  0
  5 11  1  0  0  0  0
  7  8  1  0  0  0  0
  7  9  1  0  0  0  0
  7 10  1  0  0  0  0
 11 12  2  0  0  0  0
 11 13  1  0  0  0  0
 13 14  1  0  0  0  0
 13 15  1  0  0  0  0
 15 16  1  0  0  0  0
 15 25  2  0  0  0  0
 16 17  1  0  0  0  0
 16 18  2  0  0  0  0
 18 19  1  0  0  0  0
 18 20  1  0  0  0  0
 20 21  1  0  0  0  0
 20 22  2  0  0  0  0
 22 23  1  0  0  0  0
 22 25  1  0  0  0  0
 23 24  3  0  0  0  0
 25 26  1  0  0  0  0
M  END
$$$$
